%chk=C:\A_work\05_gauss\??????????????\C60.chk
# hf/3-21g geom=connectivity

Title Card Required

0 1
 C                 -0.66580000   -0.73350000    2.45910000
 C                  0.66570000   -1.16610000    2.45900000
 C                  1.48870000   -0.03340000    2.45910000
 C                  0.66580000    1.09920000    2.45910000
 C                 -0.66580000    0.66650000    2.45910000
 C                 -1.62950000   -1.43350000    1.72290000
 C                 -1.62920000    1.36650000    1.72290000
 C                  1.03390000    2.23160000    1.72270000
 C                  2.67960000   -0.03350000    1.72270000
 C                  1.03370000   -2.29870000    1.72270000
 C                 -2.59300000   -0.73330000    0.98690000
 C                 -2.59270000    0.66650000    0.98680000
 C                 -1.26100000    2.49880000    0.98650000
 C                  0.07050000    2.93140000    0.98640000
 C                  2.22480000    2.23120000    0.98650000
 C                  3.04760000    1.09850000    0.98670000
 C                  3.04690000   -1.16630000    0.98680000
 C                  2.22360000   -2.29870000    0.98720000
 C                  0.07020000   -2.99860000    0.98680000
 C                 -1.26160000   -2.56600000    0.98670000
 C                 -2.82120000   -1.43420000   -0.20440000
 C                 -2.82020000    1.36640000   -0.20410000
 C                 -1.99730000    2.49900000   -0.20410000
 C                  0.66620000    3.36400000   -0.20440000
 C                  1.99780000    2.93170000   -0.20400000
 C                  3.64280000    0.66550000   -0.20430000
 C                  3.64220000   -0.73410000   -0.20440000
 C                  1.99620000   -2.99910000   -0.20350000
 C                  0.66560000   -3.43150000   -0.20400000
 C                 -1.99780000   -2.56660000   -0.20420000
 C                 -3.04850000   -0.73420000   -1.39540000
 C                 -3.04800000    0.66650000   -1.39510000
 C                 -1.40090000    2.93250000   -1.39660000
 C                 -0.06920000    3.36460000   -1.39580000
 C                  2.59370000    2.49920000   -1.39470000
 C                  3.41640000    1.36630000   -1.39450000
 C                  3.41460000   -1.43390000   -1.39530000
 C                  2.59140000   -2.56640000   -1.39540000
 C                 -0.06990000   -3.43170000   -1.39530000
 C                 -1.40240000   -2.99940000   -1.39520000
 C                  3.18690000   -0.73350000   -2.58600000
 C                  3.18880000    0.66620000   -2.58530000
 C                  1.85530000   -2.56610000   -2.58630000
 C                  0.52510000   -2.99930000   -2.58660000
 C                 -2.45310000   -1.16660000   -2.58560000
 C                 -1.63020000   -2.29920000   -2.58600000
 C                 -1.62950000    2.23160000   -2.58610000
 C                 -2.45260000    1.09920000   -2.58610000
 C                  0.52660000    2.93260000   -2.58670000
 C                  1.85800000    2.49980000   -2.58650000
 C                  2.22600000    1.36740000   -3.32270000
 C                  2.22330000   -1.43190000   -3.32340000
 C                 -0.43890000   -2.30000000   -3.32260000
 C                 -0.43680000    2.23310000   -3.32360000
 C                 -2.08520000   -0.03350000   -3.32250000
 C                  1.26260000    0.66800000   -4.05960000
 C                  1.26230000   -0.73200000   -4.06050000
 C                 -0.07020000   -1.16760000   -4.05870000
 C                 -0.06880000    1.10090000   -4.06010000
 C                 -0.89260000   -0.03470000   -4.05910000

 1 5 1.5 2 1.5 6 1.5
 2 3 1.5 10 1.5
 3 4 1.5 9 1.5
 4 5 1.5 8 1.5
 5 7 1.5
 6 20 1.5 11 1.5
 7 12 1.5 13 1.5
 8 14 1.5 15 1.5
 9 16 1.5 17 1.5
 10 18 1.5 19 1.5
 11 12 1.5 21 1.5
 12 22 1.5
 13 14 1.5 23 1.5
 14 24 1.5
 15 16 1.5 25 1.5
 16 26 1.5
 17 18 1.5 27 1.5
 18 28 1.5
 19 20 1.5 29 1.5
 20 30 1.5
 21 30 1.5 31 1.5
 22 23 1.5 32 1.5
 23 33 1.5
 24 25 1.5 34 1.5
 25 35 1.5
 26 27 1.5 36 1.5
 27 37 1.5
 28 29 1.5 38 1.5
 29 39 1.5
 30 40 1.5
 31 45 1.5 32 1.5
 32 48 1.5
 33 47 1.5 34 1.5
 34 49 1.5
 35 36 1.5 50 1.5
 36 42 1.5
 37 41 1.5 38 1.5
 38 43 1.5
 39 44 1.5 40 1.5
 40 46 1.5
 41 42 1.5 52 1.5
 42 51 1.5
 43 44 1.5 52 1.5
 44 53 1.5
 45 46 1.5 55 1.5
 46 53 1.5
 47 48 1.5 54 1.5
 48 55 1.5
 49 54 1.5 50 1.5
 50 51 1.5
 51 56 1.5
 52 57 1.5
 53 58 1.5
 54 59 1.5
 55 60 1.5
 56 59 1.5 57 1.5
 57 58 1.5
 58 60 1.5
 59 60 1.5
 60

