%mem=16GB
%chk=P432197.chk
%nprocshared=8
# opt freq b3lyp/6-311g(d,p) geom=connectivity

Title Card Required

0 1
 C                -16.7931   -0.0092    0.0751
 C                -12.8040   -1.3120   -0.5561
 C                -11.3498   -1.5615   -0.6057
 N                -10.7214   -0.6257    0.2339
 C                -11.7288    0.1687    0.7808
 C                -13.0330   -0.2549    0.2895
 C                -14.3368    0.1587    0.4798
 C                -15.3812   -0.4451   -0.1397
 C                -15.1458   -1.4929   -0.9774
 C                -13.8392   -1.9468   -1.1988
 C                 -8.5590   -1.5478    1.0062
 C                 -9.3073   -0.5364    0.4291
 C                 -8.6935    0.6209   -0.0032
 C                 -7.3371    0.7365    0.1511
 C                 -6.5780   -0.2908    0.7367
 C                 -7.1984   -1.4076    1.1515
 C                 -6.4515   -2.4458    1.7402
 C                 -7.0871   -3.5923    2.1676
 C                 -8.4290   -3.7114    2.0157
 C                 -9.1649   -2.6944    1.4384
 C                 -3.0926    0.6116   -0.0244
 C                 -2.5430    0.5949    1.2740
 C                 -3.2818    0.2619    2.3535
 C                 -4.6197   -0.0731    2.1810
 C                 -5.1585   -0.0550    0.9083
 C                 -4.4128    0.2838   -0.2115
 C                 -4.9703    0.2893   -1.4963
 C                 -4.2051    0.6254   -2.5836
 C                 -2.8833    0.9539   -2.3891
 C                 -2.3320    0.9446   -1.1073
 C                  0.7026    2.4436    1.6847
 C                 -0.7647    2.3533    1.7648
 N                 -1.1646    1.0102    1.3725
 C                  0.0284    0.3349    1.0761
 C                  1.1751    1.2261    1.2700
 C                  2.5453    1.0734    1.0781
 C                  3.4577    2.0759    1.2793
 C                  2.9510    3.3224    1.7112
 C                  1.5895    3.4689    1.9001
 C                  4.8802    1.9698    0.9749
 O                  5.5465    3.0712    0.9743
 N                  5.5876    0.7871    0.6731
 C                  6.9969    0.8889    0.3546
 C                  7.8268    1.8459    0.9075
 C                  9.1338    1.9761    0.4152
 C                  9.6766    1.2294   -0.5846
 C                  8.8136    0.2597   -1.1243
 C                  7.5272    0.1265   -0.6441
 C                 11.0202    1.4115   -1.1785
 C                 11.8956    0.2701   -1.3459
 C                 12.9351   -0.0462   -0.4862
 C                 13.7454   -1.1539   -0.7115
 C                 13.5900   -2.0085   -1.7770
 C                 12.5589   -1.6983   -2.6325
 C                 11.7505   -0.5972   -2.4141
 N                 14.4125   -3.1508   -2.0222
 C                 15.4490   -3.6055   -1.2088
 O                 15.8264   -3.1032   -0.1536
 C                 16.1925   -4.8432   -1.6589
 C                 10.8206    2.1050   -2.5709
 C                 11.7978    2.4841   -0.3536
 O                 -1.5726    3.2293    2.0983
 O                  0.1032   -0.8662    0.6980
 C                 -2.7280    0.2428    3.7434
 C                 -9.4957    1.7442   -0.6170
 O                -10.8298   -2.4688   -1.2983
 O                -11.5715    1.1266    1.5886
 F                 10.0230    1.3045   -3.3136
 F                 12.0074    2.4475   -3.1304
 F                 10.1766    3.3287   -2.2882
 F                 11.8777    2.1091    0.9466
 F                 13.0856    2.5854   -0.8912
 F                 11.1196    3.6599   -0.4975
 H                -17.4202   -0.9295    0.0969
 H                -16.8885    0.4208    1.0994
 H                -17.1264    0.7349   -0.6617
 H                -14.4964    0.9841    1.1414
 H                -15.9881   -1.9809   -1.4763
 H                -13.6787   -2.7687   -1.8557
 H                 -6.8736    1.6595   -0.2017
 H                 -5.3900   -2.3778    1.8693
 H                 -6.5140   -4.3849    2.6171
 H                 -8.9326   -4.5977    2.3447
 H                -10.2226   -2.8193    1.3372
 H                 -5.2021   -0.3302    3.0433
 H                 -5.9975    0.0225   -1.6773
 H                 -4.6241    0.6460   -3.6027
 H                 -2.2575    1.2273   -3.2250
 H                 -1.2891    1.1973   -0.9475
 H                  2.8939    0.0881    0.7424
 H                  3.6357    4.1225    1.8820
 H                  1.1900    4.4366    2.2362
 H                  5.1397   -0.1406    0.6754
 H                  7.4882    2.4558    1.7017
 H                  9.7559    2.7547    0.8952
 H                  9.1947   -0.3639   -1.9156
 H                  6.8863   -0.6441   -1.0897
 H                 13.1073    0.5882    0.3571
 H                 14.5283   -1.3400    0.0033
 H                 12.3739   -2.3295   -3.4880
 H                 10.9843   -0.4605   -3.1819
 H                 14.1749   -3.6806   -2.9292
 H                 16.4017   -5.4618   -0.7798
 H                 15.5528   -5.4645   -2.3267
 H                 17.1109   -4.5522   -2.1929
 H                 -3.3322    1.0212    4.2998
 H                 -2.8785   -0.7031    4.2643
 H                 -1.7012    0.6417    3.7400
 H                 -9.6616    2.4926    0.1933
 H                 -8.8011    2.2638   -1.3305
 H                -10.4041    1.3542   -1.0684

 1 8 1.0 74 1.0 75 1.0 76 1.0
 2 3 1.0 6 1.5 10 1.5
 3 4 1.0 66 2.0
 4 5 1.0 12 1.0
 5 6 1.0 67 2.0
 6 7 1.5
 7 8 1.5 77 1.0
 8 9 1.5
 9 10 1.5 78 1.0
 10 79 1.0
 11 12 1.5 16 1.5 20 1.5
 12 13 1.5
 13 14 1.5 65 1.0
 14 15 1.5 80 1.0
 15 16 1.5 25 1.0
 16 17 1.5
 17 18 1.5 81 1.0
 18 19 1.5 82 1.0
 19 20 1.5 83 1.0
 20 84 1.0
 21 22 1.5 26 1.5 30 1.5
 22 23 1.5 33 1.0
 23 24 1.5 64 1.0
 24 25 1.5 85 1.0
 25 26 1.5
 26 27 1.5
 27 28 1.5 86 1.0
 28 29 1.5 87 1.0
 29 30 1.5 88 1.0
 30 89 1.0
 31 32 1.0 35 1.5 39 1.5
 32 33 1.0 62 2.0
 33 34 1.0
 34 35 1.0 63 2.0
 35 36 1.5
 36 37 1.5 90 1.0
 37 38 1.5 40 1.0
 38 39 1.5 91 1.0
 39 92 1.0
 40 41 2.0 42 1.0
 41
 42 43 1.0 93 1.0
 43 44 1.5 48 1.5
 44 45 1.5 94 1.0
 45 46 1.5 95 1.0
 46 47 1.5 49 1.0
 47 48 1.5 96 1.0
 48 97 1.0
 49 50 1.0 60 1.0 61 1.0
 50 51 1.5 55 1.5
 51 52 1.5 98 1.0
 52 53 1.5 99 1.0
 53 54 1.5 56 1.0
 54 55 1.5 100 1.0
 55 101 1.0
 56 57 1.0 102 1.0
 57 58 2.0 59 1.0
 58
 59 103 1.0 104 1.0 105 1.0
 60 68 1.0 69 1.0 70 1.0
 61 71 1.0 72 1.0 73 1.0
 62
 63
 64 106 1.0 107 1.0 108 1.0
 65 109 1.0 110 1.0 111 1.0
 66
 67
 68
 69
 70
 71
 72
 73
 74
 75
 76
 77
 78
 79
 80
 81
 82
 83
 84
 85
 86
 87
 88
 89
 90
 91
 92
 93
 94
 95
 96
 97
 98
 99
 100
 101
 102
 103
 104
 105
 106
 107
 108
 109
 110
 111
