%mem=16GB
%chk=P432604.chk
%nprocshared=8
# opt freq b3lyp/6-311g(d,p) geom=connectivity

Title Card Required

0 1
 C                -16.7575    2.9163    2.2552
 C                -15.2974   -0.1226    3.9342
 C                -16.2205    1.0274    3.9296
 N                -16.0433    1.7044    2.6656
 C                -15.0603    0.9736    1.9690
 C                -14.5937   -0.1577    2.7516
 C                -13.6486   -1.1497    2.5395
 C                -13.3770   -2.1222    3.4729
 C                -14.0674   -2.1074    4.6517
 C                -15.0262   -1.1003    4.8694
 O                -12.3771   -3.1117    3.2008
 C                -11.4562   -2.6750    2.2069
 C                -11.3755   -3.1403    0.9428
 C                -10.4381   -2.6261    0.0176
 C                 -9.5633   -1.6235    0.3685
 C                 -9.6508   -1.1517    1.6822
 C                -10.5809   -1.6765    2.5666
 C                 -8.6413   -1.0176   -0.6101
 C                 -8.9758   -1.2964   -2.0470
 C                -10.2678   -0.7160   -2.5397
 C                -10.6715    0.4944   -1.7468
 C                 -9.3660    1.2527   -1.5013
 C                 -8.6211    0.5118   -0.4317
 C                 -7.2628   -1.5331   -0.3868
 C                 -6.4801   -1.0693    0.6644
 C                 -5.1572   -1.4973    0.8301
 C                 -4.6367   -2.3889   -0.0698
 C                 -5.3596   -2.8735   -1.1079
 C                 -6.6807   -2.4283   -1.2462
 O                 -3.3052   -2.7688    0.1371
 C                 -0.5518   -0.0884   -1.4590
 C                  0.5983    0.7794   -1.8225
 N                  1.7172    0.4819   -1.0117
 C                  1.2613   -0.5805   -0.1401
 C                 -0.1283   -0.9111   -0.4316
 C                 -1.0552   -1.8166    0.1068
 C                 -2.3292   -1.8587   -0.3915
 C                 -2.7524   -1.0363   -1.4212
 C                 -1.8393   -0.1540   -1.9414
 C                  3.0154    1.0532   -0.9620
 C                  3.2033    2.4155   -0.9616
 C                  4.4728    2.9870   -0.8868
 C                  5.5905    2.2183   -0.8094
 C                  5.4337    0.8344   -0.8068
 C                  4.1619    0.2592   -0.8830
 O                  6.8936    2.7051   -0.7295
 C                  7.9148    1.8062   -0.5154
 C                  8.3903    1.6025    0.7631
 C                  9.4232    0.6949    1.0337
 C                  9.9923   -0.0212    0.0135
 C                  9.5269    0.1746   -1.2686
 C                  8.5104    1.0700   -1.5209
 C                 10.9569   -2.1583   -0.6663
 C                 11.0716   -1.0061    0.3044
 C                 10.8394   -1.5961    1.6848
 C                 11.9066   -2.6361    1.9817
 C                 11.7659   -3.7922    1.0427
 C                 10.4262   -4.4357    1.1015
 C                  9.3872   -3.3995    0.7629
 C                  9.5923   -2.8129   -0.6118
 C                 11.9588   -3.2401   -0.3632
 C                  9.5030   -2.2642    1.7376
 C                 12.3643   -0.3421    0.2410
 C                 12.8591    0.3690    1.3421
 C                 14.0884    0.9849    1.2796
 C                 14.8777    0.9305    0.1489
 C                 14.4170    0.2373   -0.9497
 C                 13.1580   -0.3844   -0.8667
 O                 16.0959    1.5860    0.2164
 C                 16.3186    2.9275    0.0296
 C                 17.5739    3.4778    0.1411
 C                 17.7613    4.8192   -0.0468
 C                 16.6923    5.6581   -0.3543
 C                 15.4309    5.1111   -0.4680
 C                 15.2346    3.7475   -0.2776
 N                 16.8842    7.0520   -0.5399
 O                  0.5562    1.6494   -2.7290
 O                  1.9791   -1.1261    0.7363
 C                -11.7416    1.3280   -2.3494
 C                -12.9937    0.4822   -2.5267
 C                -12.1322    2.4300   -1.3766
 C                -11.3908    1.9276   -3.6790
 O                -17.0223    1.3823    4.8299
 O                -14.6241    1.2413    0.8291
 H                -17.8702    2.7386    2.3468
 H                -16.4106    3.7212    2.9191
 H                -16.5776    3.1407    1.1845
 H                -13.1003   -1.1625    1.6012
 H                -13.8775   -2.8548    5.3975
 H                -15.5949   -1.0594    5.7985
 H                -12.0399   -3.9336    0.6249
 H                -10.4389   -3.0768   -0.9694
 H                 -8.9784   -0.3772    1.9849
 H                -10.6370   -1.2965    3.5796
 H                 -9.0838   -2.4125   -2.1773
 H                 -8.1101   -1.0036   -2.6985
 H                -10.0718   -0.3922   -3.5920
 H                -11.0529   -1.4845   -2.5519
 H                -11.0212    0.1620   -0.7214
 H                 -9.7000    2.2367   -1.0496
 H                 -8.7936    1.4261   -2.4305
 H                 -7.5800    0.9006   -0.3822
 H                 -9.1227    0.7824    0.5221
 H                 -6.8508   -0.3523    1.3785
 H                 -4.5894   -1.1070    1.6658
 H                 -4.9020   -3.5826   -1.7870
 H                 -7.2019   -2.8417   -2.0868
 H                 -0.7143   -2.4410    0.8989
 H                 -3.7819   -1.0962   -1.8024
 H                 -2.1384    0.5220   -2.7641
 H                  2.3468    3.0806   -1.0238
 H                  4.5693    4.0567   -0.8909
 H                  6.2544    0.1669   -0.7504
 H                  4.0030   -0.8035   -0.8852
 H                  7.9719    2.1479    1.6033
 H                  9.7050    0.6351    2.0663
 H                  9.9240   -0.3504   -2.0956
 H                  8.1343    1.2232   -2.5276
 H                 11.1291   -1.8794   -1.7256
 H                 10.8833   -0.8683    2.4971
 H                 11.8734   -2.9405    3.0246
 H                 12.9164   -2.1831    1.7628
 H                 12.5660   -4.5342    1.1942
 H                 10.2329   -4.7772    2.1376
 H                 10.3747   -5.3224    0.4601
 H                  8.3549   -3.7766    0.8264
 H                  9.5820   -3.5808   -1.3947
 H                  8.8188   -2.0488   -0.7435
 H                 12.9947   -2.9591   -0.5634
 H                 11.6884   -4.0996   -1.0430
 H                  9.4168   -2.7233    2.7636
 H                  8.6485   -1.5692    1.6644
 H                 12.3248    0.4743    2.2629
 H                 14.4455    1.5409    2.1554
 H                 15.0337    0.1981   -1.8218
 H                 12.8769   -0.9066   -1.7831
 H                 18.4279    2.8181    0.3926
 H                 18.7582    5.2193    0.0488
 H                 14.5740    5.7352   -0.6981
 H                 14.2464    3.2985   -0.3635
 H                 17.3311    7.4086   -1.4025
 H                 16.5601    7.6783    0.2143
 H                -13.3667    0.5015   -3.5842
 H                -13.8538    0.8732   -1.9157
 H                -12.8420   -0.5666   -2.2602
 H                -13.1323    2.8096   -1.6847
 H                -11.4547    3.2821   -1.3889
 H                -12.2829    1.9502   -0.3883
 H                -11.7753    1.2933   -4.5362
 H                -11.9754    2.8910   -3.7756
 H                -10.3285    2.1615   -3.7658

 1 4 1.0 85 1.0 86 1.0 87 1.0
 2 3 1.0 6 1.5 10 1.5
 3 4 1.0 83 2.0
 4 5 1.0
 5 6 1.0 84 2.0
 6 7 1.5
 7 8 1.5 88 1.0
 8 9 1.5 11 1.0
 9 10 1.5 89 1.0
 10 90 1.0
 11 12 1.0
 12 13 1.5 17 1.5
 13 14 1.5 91 1.0
 14 15 1.5 92 1.0
 15 16 1.5 18 1.0
 16 17 1.5 93 1.0
 17 94 1.0
 18 19 1.0 23 1.0 24 1.0
 19 20 1.0 95 1.0 96 1.0
 20 21 1.0 97 1.0 98 1.0
 21 22 1.0 79 1.0 99 1.0
 22 23 1.0 100 1.0 101 1.0
 23 102 1.0 103 1.0
 24 25 1.5 29 1.5
 25 26 1.5 104 1.0
 26 27 1.5 105 1.0
 27 28 1.5 30 1.0
 28 29 1.5 106 1.0
 29 107 1.0
 30 37 1.0
 31 32 1.0 35 1.5 39 1.5
 32 33 1.0 77 2.0
 33 34 1.0 40 1.0
 34 35 1.0 78 2.0
 35 36 1.5
 36 37 1.5 108 1.0
 37 38 1.5
 38 39 1.5 109 1.0
 39 110 1.0
 40 41 1.5 45 1.5
 41 42 1.5 111 1.0
 42 43 1.5 112 1.0
 43 44 1.5 46 1.0
 44 45 1.5 113 1.0
 45 114 1.0
 46 47 1.0
 47 48 1.5 52 1.5
 48 49 1.5 115 1.0
 49 50 1.5 116 1.0
 50 51 1.5 54 1.0
 51 52 1.5 117 1.0
 52 118 1.0
 53 54 1.0 60 1.0 61 1.0 119 1.0
 54 55 1.0 63 1.0
 55 56 1.0 62 1.0 120 1.0
 56 57 1.0 121 1.0 122 1.0
 57 58 1.0 61 1.0 123 1.0
 58 59 1.0 124 1.0 125 1.0
 59 60 1.0 62 1.0 126 1.0
 60 127 1.0 128 1.0
 61 129 1.0 130 1.0
 62 131 1.0 132 1.0
 63 64 1.5 68 1.5
 64 65 1.5 133 1.0
 65 66 1.5 134 1.0
 66 67 1.5 69 1.0
 67 68 1.5 135 1.0
 68 136 1.0
 69 70 1.0
 70 71 1.5 75 1.5
 71 72 1.5 137 1.0
 72 73 1.5 138 1.0
 73 74 1.5 76 1.0
 74 75 1.5 139 1.0
 75 140 1.0
 76 141 1.0 142 1.0
 77
 78
 79 80 1.0 81 1.0 82 1.0
 80 143 1.0 144 1.0 145 1.0
 81 146 1.0 147 1.0 148 1.0
 82 149 1.0 150 1.0 151 1.0
 83
 84
 85
 86
 87
 88
 89
 90
 91
 92
 93
 94
 95
 96
 97
 98
 99
 100
 101
 102
 103
 104
 105
 106
 107
 108
 109
 110
 111
 112
 113
 114
 115
 116
 117
 118
 119
 120
 121
 122
 123
 124
 125
 126
 127
 128
 129
 130
 131
 132
 133
 134
 135
 136
 137
 138
 139
 140
 141
 142
 143
 144
 145
 146
 147
 148
 149
 150
 151
